/*--------------------------------*- C++ -*----------------------------------*\
  =========                 |
  \\      /  F ield         | OpenFOAM: The Open Source CFD Toolbox
   \\    /   O peration     | Website:  https://openfoam.org
    \\  /    A nd           | Version:  13
     \\/     M anipulation  |
\*---------------------------------------------------------------------------*/
FoamFile
{
    format      ascii;
    class       dictionary;
    object      blockMeshDict;
}
// * * * * * * * * * * * * * * * * * * * * * * * * * * * * * * * * * * * * * //

convertToMeters 1000;

vertices
(
//Derecho
//1
    (0.64476 0.58294 0)
    (0.64033 0.55638 0)
    (0.66733 0.55219 0)
    (0.67163 0.57865 0)
    
    (0.64476 0.58294 0.0065)
    (0.64033 0.55638 0.0065)
    (0.66733 0.55219 0.0065)
    (0.67163 0.57865 0.0065)
//2
    (0.67413 0.55423 0)
    (0.66852 0.51897 0)
    (0.70024 0.51394 0)
    (0.70586 0.54923 0) 
 
    (0.67413 0.55423 0.01035)
    (0.66852 0.51897 0.01035)
    (0.70024 0.51394 0.01035)
    (0.70586 0.54923 0.01035)  
//3 
    (0.63544 0.52503 0)
    (0.63042 0.49735 0)
    (0.65571 0.49277 0)
    (0.66067 0.52052 0)

    (0.63544 0.52503 0.0065)
    (0.63042 0.49735 0.0065)
    (0.65571 0.49277 0.0065)
    (0.66067 0.52052 0.0065)

//Gimnasio
    (0.55273 0.54593 0)
    (0.54792 0.51242 0)
    (0.58198 0.50748 0)
    (0.5869 0.54108 0)
    
    (0.55273 0.54593 0.015)
    (0.54792 0.51242 00.015)
    (0.58198 0.50748 00.015)
    (0.5869 0.54108 00.015)

//C1
    (0.56412 0.44723 0)
    (0.56229 0.43214 0)
    (0.58653 0.42938 0)
    (0.58808 0.44463 0)
    
    (0.56412 0.44723 0.0065)
    (0.56229 0.43214 0.0065)
    (0.58653 0.42938 0.0065)
    (0.58808 0.44463 0.0065)
    
//C1 Volado  
    (0.5743 0.44970 0)
    (0.57395 0.44616 0)
    (0.58345 0.44513 0)
    (0.58382 0.44864 0)
    
    (0.5743 0.44970 0.0065)
    (0.57395 0.44616 0.0065)
    (0.58345 0.44513 0.0065)
    (0.58382 0.44864 0.0065)
  
//C2
    (0.5227 0.45804 0)
    (0.52036 0.44653 0)
    (0.54623 0.44146 0)
    (0.54835 0.45284 0)
    
    (0.5227 0.45804 0.0055)
    (0.52036 0.44653 0.0055)
    (0.54623 0.44146 0.0055)
    (0.54835 0.45284 0.0055)
    
//Comunicaciòn  
    (0.47464 0.46896 0)
    (0.46742 0.42915 0)
    (0.50164 0.42339 0)
    (0.50838 0.46306 0)
    
    (0.47464 0.46896 0.0115)
    (0.46742 0.42915 0.0115)
    (0.50164 0.42339 0.0115)
    (0.50838 0.46306 0.0115)
    
//Poliforo
    (0.35516 0.66974 0)
    (0.35066 0.62820 0)
    (0.36887 0.62644 0)
    (0.37388 0.66831 0)
    
    (0.35516 0.66974 0.0055)
    (0.35066 0.62820 0.0055)
    (0.36887 0.62644 0.0055)
    (0.37388 0.66831 0.0055)

//P. Parte de en medio
    (0.37446 0.67321 0)
    (0.36934 0.63035 0)
    (0.38592 0.64144 0)
    (0.38899 0.67198 0)
    
    (0.37446 0.67321 0.0055)
    (0.36934 0.63035 0.0055)
    (0.38592 0.64144 0.0055)
    (0.38899 0.67198 0.0055)
    
//P. Parte mas grande
    (0.38851 0.66719 0)
    (0.38592 0.64144 0)
    (0.40657 0.63985 0)
    (0.40855 0.66567 0)
    
    (0.38851 0.66719 0.0075)
    (0.38592 0.64144 0.0075)
    (0.40657 0.63985 0.0075)
    (0.40855 0.66567 0.0075)
    
//P. Nuevos salones
    (0.32562 0.67892 0)
    (0.32081 0.64962 0)
    (0.33505 0.63703 0)
    (0.3415 0.67626 0)
    
    (0.32562 0.67892 0.0065)
    (0.32081 0.64962 0.0065)
    (0.33505 0.63703 0.0065)
    (0.3415 0.67626 0.0065)
    
//Biologia marina
    (0.44095 0.39489 0)
    (0.43292 0.35446 0)
    (0.4645 0.3482 0)
    (0.47267 0.38876 0)
    
    (0.44095 0.39489 0.0115)
    (0.43292 0.35446 0.0115)
    (0.4645 0.3482 0.0115)
    (0.47267 0.38876 0.0115)
    
//Atras de biologia marina
    (0.49686 0.37882 0)
    (0.49377 0.35348 0)
    (0.52106 0.34991 0)
    (0.52412 0.37554 0)
    
    (0.49686 0.37882 0.0065)
    (0.49377 0.35348 0.0065)
    (0.52106 0.34991 0.0065)
    (0.52412 0.37554 0.0065)

//A lado del anterior
    (0.49525 0.3443 0)
    (0.49123 0.31745 0)
    (0.51755 0.31391 0)
    (0.5216 0.34082 0)
    
    (0.49525 0.3443 0.0065)
    (0.49123 0.31745 0.0065)
    (0.51755 0.31391 0.0065)
    (0.5216 0.34082 0.0065)
    
//Agronomia
    (0.46192 0.31884 0)
    (0.45634 0.28427 0)
    (0.48899 0.27905 0)
    (0.49485 0.31381 0)
    
    (0.46192 0.31884 0.0115)
    (0.45634 0.28427 0.0115)
    (0.48899 0.27905 0.0115)
    (0.49485 0.31381 0.0115)
    
//No se la verdad
    (0.52613 0.30821 0)
    (0.52119 0.27405 0)
    (0.55225 0.2697 0)
    (0.55695 0.30414 0)
    
    (0.52613 0.30821 0.0115)
    (0.52119 0.27405 0.0115)
    (0.55225 0.2697 0.0115)
    (0.55695 0.30414 0.0115)

//???
    (0.26865 0.41997 0)
    (0.26255 0.38488 0)
    (0.29484 0.37929 0)
    (0.30068 0.41424 0)
    
    (0.26865 0.41997 0.0115)
    (0.26255 0.38488 0.0115)
    (0.29484 0.37929 0.0115)
    (0.30068 0.41424 0.0115)
    
//DELE 
    (0.27132 0.33661 0)
    (0.26439 0.30436 0)
    (0.292 0.29866 0)
    (0.29819 0.33107 0)
    
    (0.27132 0.33661 0.0115)
    (0.26439 0.30436 0.0115)
    (0.292 0.29866 0.0115)
    (0.29819 0.33107 0.0115)
    
//Nueva cafeteria
    (0.46354 0.56948 0)
    (0.45561 0.53121 0)
    (0.460 0.530 0)
    (0.48335 0.56516 0)
    
    (0.46354 0.56948 0.0075)
    (0.45561 0.53121 0.0075)
    (0.460 0.530 0.0075)
    (0.48335 0.56516 0.0075)
    
//banqueta gym
    (0.49057 0.50287 0)
    (0.54318 0.4935 0)
    (0.54542 0.49494 0)
    (0.55446 0.55797 0)
    
    (0.49057 0.50287 0.001)
    (0.54318 0.4935 0.001)
    (0.54542 0.49494 0.001)
    (0.55446 0.55797 0.001)
    
//las empanadas
    (0.54344 0.48191 0)
    (0.54273 0.47623 0)
    (0.54893 0.4752 0)
    (0.54967 0.48102 0)
    
    (0.54344 0.48191 0.004)
    (0.54273 0.47623 0.004)
    (0.54893 0.4752 0.004)
    (0.54967 0.48102 0.004)
    
//Edificios a un lado de la biblioteca
    
    (0.33709 0.61628 0)
    (0.33258 0.58665 0)
    (0.34982 0.58387 0)
    (0.3548 0.6135 0)
    
    (0.33709 0.61628 0.0105)
    (0.33258 0.58665 0.0105)
    (0.34982 0.58387 0.0105)
    (0.3548 0.6135 0.0105)
    
//Edificio donde se pide para el servicio
    
    (0.37903 0.57513 0)
    (0.37706 0.5554 0)
    (0.41237 0.55165 0)
    (0.41454 0.57118 0)
    
    (0.37903 0.57513 0.006)
    (0.37706 0.5554 0.006)
    (0.41237 0.55165 0.006)
    (0.41454 0.57118 0.006)
    
//edificio enfrente de donde se pide para el servicio

    (0.3735 0.54238 0)
    (0.37153 0.52699 0)
    (0.40842 0.52206 0)
    (0.4104 0.53765 0)
    
    (0.3735 0.54238 0.012)
    (0.37153 0.52699 0.012)
    (0.40842 0.52206 0.012)
    (0.4104 0.53765 0.012)
    
    (0.38758 0.54465 0)
    (0.38714 0.54061 0)
    (0.39284 0.5399 0)
    (0.39328 0.54398 0)
    
    (0.38758 0.54465 0.007)
    (0.38714 0.54061 0.007)
    (0.39284 0.5399 0.007)
    (0.39328 0.54398 0.007)  
    
//a un lado del edificio donde se pide para el servicio
   
    (0.32142 0.5734 0)
    (0.31675 0.55129 0)
    (0.3313 0.54848 0)
    (0.33625 0.57056 0)
    
    (0.32142 0.5734 0.0105)
    (0.31675 0.55129 0.0105)
    (0.3313 0.54848 0.0105)
    (0.33625 0.57056 0.0105)
    
    (0.335 0.565 0)
    (0.34311 0.56357 0)
    (0.34434 0.56901 0)
    
    (0.335 0.565 0.0105)
    (0.34311 0.56357 0.0105)
    (0.34434 0.56901 0.0105)
    
    (0.33276 0.55501 0)
    (0.33935 0.54692 0)
    (0.34078 0.55326 0)
    
    (0.33276 0.55501 0.0105)
    (0.33935 0.54692 0.0105)
    (0.34078 0.55326 0.0105)
    
//humanidades
    (0.65829 0.48085 0) //228
    (0.65749 0.47668 0) //229
    (0.66911 0.47571 0) //230
    (0.670 0.480 0) //231
    
    (0.65829 0.48085 0.0065) //232
    (0.65749 0.47668 0.0065) //233
    (0.66911 0.47571 0.0065) //234
    (0.670 0.480 0.0065) //235
    
    (0.64795 0.47748 0) //236
    (0.64609 0.46759 0) //237 W5
    (0.672 0.46528 0) //238
    (0.67386 0.47531 0) //239

    (0.64795 0.47748 0.0065) //240
    (0.64609 0.46759 0.0065) //241 W5
    (0.672 0.46528 0.0065) //242
    (0.67386 0.47531 0.0065) //243
    
    (0.63785 0.47384 0) //244
    (0.63287 0.44927 0) //245 N5	
    (0.64249 0.4483 0) //246 M5
    (0.64709 0.47293 0) //247
    
    (0.63785 0.47384 0.0065) //248
    (0.63287 0.44927 0.0065) //249 N5
    (0.64249 0.4483 0.0065) //250 M5
    (0.64709 0.47293 0.0065) //251
    

    (0.64697 0.44784 0)
    (0.6639 0.466 0)

    

    (0.64697 0.44784 0.0065)
    (0.6639 0.466 0.0065)

    
    (0.63113 0.44065 0)
    (0.64088 0.43973 0)
    
    (0.63287 0.44927 0.0075)
    (0.63113 0.44065 0.0075)
    (0.64088 0.43973 0.0075)
    (0.64249 0.4483 0.0075)
    
    (0.62455 0.4695 0)
    (0.61982 0.44171 0)
    //256
    (0.63675 0.46842 0)
    
    (0.62455 0.4695 0.0065)
    (0.61982 0.44171 0.0065)
    (0.63113 0.44065 0.0065)
    (0.63675 0.46842 0.0065)
    
    (0.62172 0.46975 0)
    (0.61898 0.45393 0)
    (0.62185 0.45364 0)
    //262
    
    (0.62172 0.46975 0.0065)
    (0.61898 0.45393 0.0065)
    (0.62185 0.45364 0.0065)
    //265
    
    (0.62651 0.42957 0)
    (0.62401 0.41822 0)
    (0.64429 0.41517 0)
    (0.64645 0.42666 0)
    
    (0.62651 0.42957 0.010)
    (0.62401 0.41822 0.010)
    (0.64429 0.41517 0.010)
    (0.64645 0.42666 0.010)
    
    (0.64606 0.42457 0)
    //277
    (0.65526 0.41021 0)
    (0.65742 0.42292 0)
    
    (0.64606 0.42457 0.010)
    //281
    (0.65526 0.41021 0.010)
    (0.65742 0.42292 0.010)
    
    (0.65698 0.4203 0)
    (0.65581 0.41343 0)
    (0.65984 0.41283 0)
    (0.66098 0.41969 0)
    
    (0.65698 0.4203 0.010)
    (0.65581 0.41343 0.010)
    (0.65984 0.41283 0.010)
    (0.66098 0.41969 0.010)
    
    (0.62261 0.41188 0)
    (0.62939 0.41083 0)
    (0.63079 0.4172 0)
    
    (0.62261 0.41188 0.010)
    (0.62939 0.41083 0.010)
    (0.63079 0.4172 0.010)
    
    (0.620 0.400 0)
    (0.64079 0.39653 0)
    (0.64308 0.4087 0)
    
    (0.620 0.400 0.010)
    (0.64079 0.39653 0.010)
    (0.64308 0.4087 0.010)
    
    (0.61839 0.41568 0)
    (0.61549 0.4041 0)
    (0.62071 0.40322 0)
    (0.62327 0.41488 0)
    
    (0.61839 0.41568 0.010)
    (0.61549 0.4041 0.010)
    (0.62071 0.40322 0.010)
    (0.62327 0.41488 0.010)
    
    (0.61152 0.4136 0)
    (0.61017 0.40764 0)
    (0.61615 0.40673 0)
    (0.61763 0.41265 0)
    
    (0.61152 0.4136 0.010)
    (0.61017 0.40764 0.010)
    (0.61615 0.40673 0.010)
    (0.61763 0.41265 0.010)
    
    (0.54374 0.40764 0)
    (0.540 0.380 0)
    (0.57425 0.37488 0)
    (0.5782 0.40341 0)
    
    (0.54374 0.40764 0.0065)
    (0.540 0.380 0.0065)
    (0.57425 0.37488 0.0065)
    (0.5782 0.40341 0.0065)
    
    (0.60511 0.37934 0)
    (0.60128 0.3533 0)
    (0.62938 0.34936 0)
    (0.63228 0.37572 0)
    
    (0.60511 0.37934 0.0065)
    (0.60128 0.3533 0.0065)
    (0.62938 0.34936 0.0065)
    (0.63228 0.37572 0.0065)
    
    //cafeteria y mas
    (0.362 0.32849 0)
    (0.360 0.31806 0)
    (0.38051 0.31481 0)
    (0.3818 0.32574 0)

    (0.362 0.32849 0.003)
    (0.360 0.31806 0.003)
    (0.38051 0.31481 0.003)
    (0.3818 0.32574 0.003)
    
    (0.35581 0.29907 0)
    (0.35437 0.29016 0)
    (0.36261 0.28891 0)
    (0.36386 0.29773 0)
    
    (0.35581 0.29907 0.004)
    (0.35437 0.29016 0.004)
    (0.36261 0.28891 0.004)
    (0.36386 0.29773 0.004)
    
    (0.36735 0.30557 0)
    (0.36556 0.29317 0)
    (0.3772 0.29121 0)
    (0.37889 0.30386 0)
    
    (0.36735 0.30557 0.004)
    (0.36556 0.29317 0.004)
    (0.3772 0.29121 0.004)
    (0.37889 0.30386 0.004)
    
    //+ salones y laboratorios
    (0.38877 0.3024 0)
    (0.38729 0.2895 0)
    (0.40786 0.28603 0)
    (0.40983 0.29929 0)
    
    (0.38877 0.3024 0.004)
    (0.38729 0.2895 0.004)
    (0.40786 0.28603 0.004)
    (0.40983 0.29929 0.004)
    
    (0.33399 0.28852 0)
    (0.33116 0.27422 0)
    (0.36062 0.26882 0)
    (0.36285 0.28357 0)
    
    (0.33399 0.28852 0.005)
    (0.33116 0.27422 0.005)
    (0.36062 0.26882 0.005)
    (0.36285 0.28357 0.005)
    
    (0.37009 0.28233 0)//
    (0.368 0.26746 0)
    (0.40411 0.26084 0)
    (0.40638 0.27611 0)
    
    (0.37009 0.28233 0.005)//
    (0.368 0.26746 0.005)
    (0.40411 0.26084 0.005)
    (0.40638 0.27611 0.005)
    
    (0.32264 0.26481 0)
    (0.32033 0.2516 0)
    (0.34925 0.24645 0)
    (0.35132 0.25997 0)
    
    (0.32264 0.26481 0.005)
    (0.32033 0.2516 0.005)
    (0.34925 0.24645 0.005)
    (0.35132 0.25997 0.005)
    
    (0.35778 0.25889 0)
    (0.35562 0.24532 0)
    (0.3692 0.2429 0)
    (0.37108 0.25665 0)
    
    (0.35778 0.25889 0.005)
    (0.35562 0.24532 0.005)
    (0.3692 0.2429 0.005)
    (0.37108 0.25665 0.005)
    
    (0.3118 0.24253 0)
    (0.30924 0.22805 0)
    (0.33832 0.22323 0)
    (0.34061 0.23773 0)
    
    (0.3118 0.24253 0.005)
    (0.30924 0.22805 0.005)
    (0.33832 0.22323 0.005)
    (0.34061 0.23773 0.005)
    
    (0.34039 0.23238 0)
    (0.33831 0.21951 0)
    (0.34562 0.21814 0)
    (0.34754 0.23108 0)
    
    (0.34039 0.23238 0.005)
    (0.33831 0.21951 0.005)
    (0.34562 0.21814 0.005)
    (0.34754 0.23108 0.005)
    
    (0.35228 0.23579 0)
    (0.35039 0.22124 0)
    (0.39154 0.21443 0)
    (0.39344 0.22894 0)
    
    (0.35228 0.23579 0.005)
    (0.35039 0.22124 0.005)
    (0.39154 0.21443 0.005)
    (0.39344 0.22894 0.005)
    
    (0.46935 0.59853 0)
    (0.4705 0.59682 0)
    (0.48252 0.60578 0)
    (0.481 0.60748 0)
    
    (0.46935 0.59853 0.005)
    (0.4705 0.59682 0.005)
    (0.48252 0.60578 0.005)
    (0.481 0.60748 0.005)
    
    //¿? 
    (0.58058 0.83172 0)
    (0.57765 0.82419 0)
    (0.58952 0.81969 0)
    (0.59205 0.82722 0)
    
    (0.58058 0.83172 0.004)
    (0.57765 0.82419 0.004)
    (0.58952 0.81969 0.004)
    (0.59205 0.82722 0.004)
    
    //edificios de la profe de valores
    (0.4103 0.25345 0)
    (0.40899 0.23822 0)
    (0.43191 0.23567 0)
    (0.43319 0.2511 0)
    
    (0.4103 0.25345 0.005)
    (0.40899 0.23822 0.005)
    (0.43191 0.23567 0.005)
    (0.43319 0.2511 0.005)
    
    //2
    (0.4068 0.23412 0)
    (0.40493 0.21385 0)
    (0.42964 0.21163 0)
    (0.43138 0.23156 0)
    
    (0.4068 0.23412 0.005)
    (0.40493 0.21385 0.005)
    (0.42964 0.21163 0.005)
    (0.43138 0.23156 0.005)
    
    //otro edificio
    (0.47243 0.24018 0)
    (0.47069 0.2152 0)
    (0.50328 0.21243 0)
    (0.50497 0.23754 0)
    
    (0.47243 0.24018 0.006)
    (0.47069 0.2152 0.006)
    (0.50328 0.21243 0.006)
    (0.50497 0.23754 0.006)
    
    (0.48576 0.1956 0)
    (0.48444 0.17536 0)
    (0.50095 0.17383 0)
    (0.50216 0.19437 0)
    
    (0.48576 0.1956 0.007)
    (0.48444 0.17536 0.007)
    (0.50095 0.17383 0.007)
    (0.50216 0.19437 0.007)
    
    (0.4335 0.18455 0)
    (0.4304 0.15835 0)
    (0.46037 0.15456 0)
    (0.46283 0.18083 0)
    
    (0.4335 0.18455 0.0065)
    (0.4304 0.15835 0.0065)
    (0.46037 0.15456 0.0065)
    (0.46283 0.18083 0.0065)
    
    (0.37949 0.20303 0)
    (0.37538 0.17345 0)
    (0.40782 0.16892 0)
    (0.4117 0.19876 0)
    
    (0.37949 0.20303 0.0065)
    (0.37538 0.17345 0.0065)
    (0.40782 0.16892 0.0065)
    (0.4117 0.19876 0.0065)
    
    (0.37971 0.15443 0)
    (0.37938 0.13258 0)
    (0.40717 0.13213 0)
    (0.40753 0.15373 0)
    
    (0.37971 0.15443 0.0065)
    (0.37938 0.13258 0.0065)
    (0.40717 0.13213 0.0065)
    (0.40753 0.15373 0.0065)
    
    (0.43321 0.14072 0)
    (0.43022 0.11501 0)
    (0.46172 0.11072 0)
    (0.46411 0.13684 0)
    
    (0.43321 0.14072 0.0065)
    (0.43022 0.11501 0.0065)
    (0.46172 0.11072 0.0065)
    (0.46411 0.13684 0.0065)
    
    (0.43279 0.10085 0)
    (0.43018 0.08717 0)
    (0.44555 0.0841 0)
    (0.44775 0.09766 0)
    
    (0.43279 0.10085 0.005)
    (0.43018 0.08717 0.005)
    (0.44555 0.0841 0.005)
    (0.44775 0.09766 0.005)
    
//destruido
    (0.40083 0.12604 0)
    (0.3946 0.11509 0)
    (0.40529 0.10828 0)
    (0.41154 0.11943 0)
    
    (0.40083 0.12604 0.003)
    (0.3946 0.11509 0.003)
    (0.40529 0.10828 0.003)
    (0.41154 0.11943 0.003)
    
//PESQUERIAS
    (0.33817 0.14636 0)
    (0.33739 0.11756 0)
    (0.36934 0.1169 0)
    (0.36954 0.14561 0)

    (0.33817 0.14636 0.005)
    (0.33739 0.11756 0.005)
    (0.36934 0.1169 0.005)
    (0.36954 0.14561 0.005)
    
    (0.3543 0.11721 0)
    (0.35427 0.09075 0)
    (0.38636 0.08975 0)
    (0.38641 0.11654 0)
    
    (0.3543 0.11721 0.005)
    (0.35427 0.09075 0.005)
    (0.38636 0.08975 0.005)
    (0.38641 0.11654 0.005)
   
//almacen
    (0.25821 0.17189 0)
    (0.25821 0.15704 0)
    (0.30963 0.15675 0)
    (0.30983 0.17128 0)
    
    (0.25821 0.17189 0.0065)
    (0.25821 0.15704 0.0065)
    (0.30963 0.15675 0.0065)
    (0.30983 0.17128 0.0065)
    
//laboratorio
    (0.32126 0.16766 0)
    (0.32115 0.15467 0)
    (0.3503 0.15437 0)
    (0.3503 0.16746 0)
    
    (0.32126 0.16766 0.0045)
    (0.32115 0.15467 0.0045)
    (0.3503 0.15437 0.0045)
    (0.3503 0.16746 0.0045)
    
//el edificio donde tomo clases
    (0.29894 0.15186 0)
    (0.29894 0.14151 0)
    (0.32493 0.14115 0)
    (0.32486 0.15171 0)
    
    (0.29894 0.15186 0.0065)
    (0.29894 0.14151 0.0065)
    (0.32493 0.14115 0.0065)
    (0.32486 0.15171 0.0065)
    
    (0.29226 0.14855 0)
    (0.29225 0.1302 0)
    (0.29893 0.13003 0)
    (0.29894 0.14844 0)
    
    (0.29226 0.14855 0.0065)
    (0.29225 0.1302 0.0065)
    (0.29893 0.13003 0.0065)
    (0.29894 0.14844 0.0065)
    
    (0.29893 0.13774 0)
    (0.29893 0.12573 0)
    (0.32641 0.12542 0)
    (0.32641 0.13754 0)
    
    (0.29893 0.13774 0.0065)
    (0.29893 0.12573 0.0065)
    (0.32641 0.12542 0.0065)
    (0.32641 0.13754 0.0065)
    
    (0.29894 0.14151 0)
    (0.29893 0.13774 0)
    (0.30321 0.13771 0)
    (0.30325 0.14145 0)
    
    (0.29894 0.14151 0.0065)
    (0.29893 0.13774 0.0065)
    (0.30321 0.13771 0.0065)
    (0.30325 0.14145 0.0065)

//casa de buen diseño
    (0.35291 0.05554 0)
    (0.35286 0.04674 0)
    (0.36264 0.04662 0)
    (0.36269 0.05554 0)
    
    (0.35291 0.05554 0.003)
    (0.35286 0.04674 0.003)
    (0.36264 0.04662 0.003)
    (0.36269 0.05554 0.003)
    
    //nuevo edificio
    (0.25438 0.29369 0)
    (0.25105 0.26781 0)
    (0.27934 0.26357 0)
    (0.2825 0.2897 0)
    
    (0.25438 0.29369 0.0115)
    (0.25105 0.26781 0.0115)
    (0.27934 0.26357 0.0115)
    (0.2825 0.2897 0.0115)
    
    //biblioteca
    (0.28721 0.48581 0)
    (0.28595 0.47795 0)
    (0.30356 0.47429 0)
    (0.3048 0.48217 0)
    
    (0.28721 0.48581 0.0115)
    (0.28595 0.47795 0.0115)
    (0.30356 0.47429 0.0115)
    (0.3048 0.48217 0.0115)
    
    (0.29004 0.50345 0)
    (0.28721 0.48581 0)
    (0.33512 0.47591 0)
    (0.33793 0.49418 0)
    
    (0.29004 0.50345 0.0115)
    (0.28721 0.48581 0.0115)
    (0.33512 0.47591 0.0115)
    (0.33793 0.49418 0.0115)
    
    (0.32239 0.50475 0)
    (0.32106 0.49745 0)
    (0.33793 0.49418 0)
    (0.33902 0.50131 0)
    
    (0.32239 0.50475 0.0115)
    (0.32106 0.49745 0.0115)
    (0.33793 0.49418 0.0115)
    (0.33902 0.50131 0.0115)
    
    //segundo nuevo edificio
    (0.31649 0.54191 0)
    (0.3124 0.51614 0)
    (0.32873 0.51316 0)
    (0.333 0.539 0)
    
    (0.31649 0.54191 0.0115)
    (0.3124 0.51614 0.0115)
    (0.32873 0.51316 0.0115)
    (0.333 0.539 0.0115)
    
    (0.333 0.539 0)
    (0.33161 0.53062 0)
    (0.33564 0.52979 0)
    (0.33713 0.53834 0)
    
    (0.333 0.539 0.0115)
    (0.33161 0.53062 0.0115)
    (0.33564 0.52979 0.0115)
    (0.33713 0.53834 0.0115)
    
    (0.31953 0.51484 0)
    (0.31675 0.49828 0)
    (0.32106 0.49745 0)
    (0.32402 0.51402 0)
    
    (0.31953 0.51484 0.008)
    (0.31675 0.49828 0.008)
    (0.32106 0.49745 0.008)
    (0.32402 0.51402 0.008)
    
    //radio uabcs
    (0.36771 0.50606 0)
    (0.36642 0.49637 0)
    (0.3756 0.49516 0)
    (0.3768 0.50492 0)
    
    (0.36771 0.50606 0.010)
    (0.36642 0.49637 0.010)
    (0.3756 0.49516 0.010)
    (0.3768 0.50492 0.010)
    
    (0.37091 0.49577 0)
    (0.36989 0.48681 0)
    (0.3745 0.48625 0)
    (0.3756 0.49516 0)
    
    (0.37091 0.49577 0.008)
    (0.36989 0.48681 0.008)
    (0.3745 0.48625 0.008)
    (0.3756 0.49516 0.008)
    
    (0.37658 0.50315 0)
    (0.3745 0.48625 0)
    (0.38815 0.48459 0)
    (0.38948 0.50163 0)
    
    (0.37658 0.50315 0.008)
    (0.3745 0.48625 0.008)
    (0.38815 0.48459 0.008)
    (0.38948 0.50163 0.008)
    
    (0.38948 0.50163 0)
    (0.38815 0.48459 0)
    (0.39317 0.48398 0)
    (0.3942 0.50107 0)
    
    (0.38948 0.50163 0.006)
    (0.38815 0.48459 0.006)
    (0.39317 0.48398 0.006)
    (0.3942 0.50107 0.006)
    
    (0.35644 0.48538 0)
    (0.35429 0.47007 0)
    (0.36354 0.46855 0)
    (0.36526 0.48407 0)
    
    (0.35644 0.48538 0.0065)
    (0.35429 0.47007 0.0065)
    (0.36354 0.46855 0.0065)
    (0.36526 0.48407 0.0065)
    
    (0.36526 0.48407 0)
    (0.36371 0.47007 0)
    (0.38299 0.46732 0)
    (0.38459 0.48121 0)
    
    (0.36526 0.48407 0.0115)
    (0.36371 0.47007 0.0115)
    (0.38299 0.46732 0.0115)
    (0.38459 0.48121 0.0115)
    
    (0.36371 0.47007 0)
    (0.36317 0.46521 0)
    (0.37488 0.46375 0)
    (0.37556 0.46838 0)
    
    (0.36371 0.47007 0.0115)
    (0.36317 0.46521 0.0115)
    (0.37488 0.46375 0.0115)
    (0.37556 0.46838 0.0115)
);

blocks
(
   hex (0 1 2 3 4 5 6 7) (10 10 1) simpleGrading (1 1 1)
   hex (8 9 10 11 12 13 14 15) (10 10 1) simpleGrading (1 1 1)
   hex (16 17 18 19 20 21 22 23) (10 10 1) simpleGrading (1 1 1)
   hex (24 25 26 27 28 29 30 31) (10 10 1) simpleGrading (1 1 1)
   hex (32 33 34 35 36 37 38 39) (10 10 1) simpleGrading (1 1 1)
   hex (40 41 42 43 44 45 46 47) (10 10 1) simpleGrading (1 1 1)
   hex (48 49 50 51 52 53 54 55) (10 10 1) simpleGrading (1 1 1)
   hex (56 57 58 59 60 61 62 63) (10 10 1) simpleGrading (1 1 1)
   hex (64 65 66 67 68 69 70 71) (10 10 1) simpleGrading (1 1 1)
   hex (72 73 74 75 76 77 78 79) (10 10 1) simpleGrading (1 1 1)
   hex (80 81 82 83 84 85 86 87) (10 10 1) simpleGrading (1 1 1)
   hex (88 89 90 91 92 93 94 95) (10 10 1) simpleGrading (1 1 1)
   hex (96 97 98 99 100 101 102 103) (10 10 1) simpleGrading (1 1 1)
   hex (104 105 106 107 108 109 110 111) (10 10 1) simpleGrading (1 1 1)
   hex (112 113 114 115 116 117 118 119) (10 10 1) simpleGrading (1 1 1)
   hex (120 121 122 123 124 125 126 127) (10 10 1) simpleGrading (1 1 1)
   hex (128 129 130 131 132 133 134 135) (10 10 1) simpleGrading (1 1 1)
   hex (136 137 138 139 140 141 142 143) (10 10 1) simpleGrading (1 1 1)
   hex (144 145 146 147 148 149 150 151) (10 10 1) simpleGrading (1 1 1)
   hex (152 153 154 155 156 157 158 159) (10 10 1) simpleGrading (1 1 1)
   hex (160 161 162 163 164 165 166 167) (10 10 1) simpleGrading (1 1 1)
   hex (168 169 170 171 172 173 174 175) (10 10 1) simpleGrading (1 1 1)
   hex (176 177 178 179 180 181 182 183) (10 10 1) simpleGrading (1 1 1)
   hex (184 185 186 187 188 189 190 191) (10 10 1) simpleGrading (1 1 1)
   hex (192 193 194 195 196 197 198 199) (10 10 1) simpleGrading (1 1 1)
   hex (200 201 202 203 204 205 206 207) (10 10 1) simpleGrading (1 1 1)
   hex (208 209 210 211 212 213 214 215) (10 10 1) simpleGrading (1 1 1)
   hex (211 216 217 218 215 219 220 221) (10 10 1) simpleGrading (1 1 1)
   hex (222 210 223 224 225 214 226 227) (10 10 1) simpleGrading (1 1 1)
   hex (228 229 230 231 232 233 234 235) (10 10 1) simpleGrading (1 1 1)
   hex (236 237 238 239 240 241 242 243) (10 10 1) simpleGrading (1 1 1)
   hex (244 245 246 247 248 249 250 251) (10 10 1) simpleGrading (1 1 1)
   hex (246 252 253 237 250 254 255 241) (10 10 1) simpleGrading (1 1 1)
   hex (245 256 257 246 258 259 260 261) (10 10 1) simpleGrading (1 1 1)
   hex (262 263 256 264 265 266 267 268) (10 10 1) simpleGrading (1 1 1)
   hex (269 270 271 262 272 273 274 265) (10 10 1) simpleGrading (1 1 1)
   hex (275 276 277 278 279 280 281 282) (10 10 1) simpleGrading (1 1 1)
   hex (283 277 284 285 286 281 287 288) (10 10 1) simpleGrading (1 1 1)
   hex (289 290 291 292 293 294 295 296) (10 10 1) simpleGrading (1 1 1)
   hex (276 297 298 299 280 300 301 302) (10 10 1) simpleGrading (1 1 1)
   hex (297 303 304 305 300 306 307 308) (10 10 1) simpleGrading (1 1 1)
   hex (309 310 311 312 313 314 315 316) (10 10 1) simpleGrading (1 1 1)
   hex (317 318 319 320 321 322 323 324) (10 10 1) simpleGrading (1 1 1)
   hex (325 326 327 328 329 330 331 332) (10 10 1) simpleGrading (1 1 1)
   hex (333 334 335 336 337 338 339 340) (10 10 1) simpleGrading (1 1 1)
   hex (341 342 343 344 345 346 347 348) (10 10 1) simpleGrading (1 1 1)
   hex (349 350 351 352 353 354 355 356) (10 10 1) simpleGrading (1 1 1)
   hex (357 358 359 360 361 362 363 364) (10 10 1) simpleGrading (1 1 1)
   hex (365 366 367 368 369 370 371 372) (10 10 1) simpleGrading (1 1 1)
   hex (373 374 375 376 377 378 379 380) (10 10 1) simpleGrading (1 1 1)
   hex (381 382 383 384 385 386 387 388) (10 10 1) simpleGrading (1 1 1)
   hex (389 390 391 392 393 394 395 396) (10 10 1) simpleGrading (1 1 1)
   hex (397 398 399 400 401 402 403 404) (10 10 1) simpleGrading (1 1 1)
   hex (405 406 407 408 409 410 411 412) (10 10 1) simpleGrading (1 1 1)
   hex (413 414 415 416 417 418 419 420) (10 10 1) simpleGrading (1 1 1)
   hex (421 422 423 424 425 426 427 428) (10 10 1) simpleGrading (1 1 1)
   hex (429 430 431 432 433 434 435 436) (10 10 1) simpleGrading (1 1 1)
   hex (437 438 439 440 441 442 443 444) (10 10 1) simpleGrading (1 1 1)
   hex (445 446 447 448 449 450 451 452) (10 10 1) simpleGrading (1 1 1)
   hex (453 454 455 456 457 458 459 460) (10 10 1) simpleGrading (1 1 1)
   hex (461 462 463 464 465 466 467 468) (10 10 1) simpleGrading (1 1 1)
   hex (469 470 471 472 473 474 475 476) (10 10 1) simpleGrading (1 1 1)
   hex (477 478 479 480 481 482 483 484) (10 10 1) simpleGrading (1 1 1)
   hex (485 486 487 488 489 490 491 492) (10 10 1) simpleGrading (1 1 1)
   hex (493 494 495 496 497 498 499 500) (10 10 1) simpleGrading (1 1 1)
   hex (501 502 503 504 505 506 507 508) (10 10 1) simpleGrading (1 1 1)
   hex (509 510 511 512 513 514 515 516) (10 10 1) simpleGrading (1 1 1)
   hex (517 518 519 520 521 522 523 524) (10 10 1) simpleGrading (1 1 1)
   hex (525 526 527 528 529 530 531 532) (10 10 1) simpleGrading (1 1 1)
   hex (533 534 535 536 537 538 539 540) (10 10 1) simpleGrading (1 1 1)
   hex (541 542 543 544 545 546 547 548) (10 10 1) simpleGrading (1 1 1)
   hex (549 550 551 552 553 554 555 556) (10 10 1) simpleGrading (1 1 1)
   hex (557 558 559 560 561 562 563 564) (10 10 1) simpleGrading (1 1 1)
   hex (565 566 567 568 569 570 571 572) (10 10 1) simpleGrading (1 1 1)
   hex (573 574 575 576 577 578 579 580) (10 10 1) simpleGrading (1 1 1)
   hex (581 582 583 584 585 586 587 588) (10 10 1) simpleGrading (1 1 1)
   hex (589 590 591 592 593 594 595 596) (10 10 1) simpleGrading (1 1 1)
   hex (597 598 599 600 601 602 603 604) (10 10 1) simpleGrading (1 1 1)
   hex (605 606 607 608 609 610 611 612) (10 10 1) simpleGrading (1 1 1)
   hex (613 614 615 616 617 618 619 620) (10 10 1) simpleGrading (1 1 1)
   hex (621 622 623 624 625 626 627 628) (10 10 1) simpleGrading (1 1 1)
   hex (629 630 631 632 633 634 635 636) (10 10 1) simpleGrading (1 1 1)
   hex (637 638 639 640 641 642 643 644) (10 10 1) simpleGrading (1 1 1)
   hex (645 646 647 648 649 650 651 652) (10 10 1) simpleGrading (1 1 1)
   hex (653 654 655 656 657 658 659 660) (10 10 1) simpleGrading (1 1 1)
   hex (661 662 663 664 665 666 667 668) (10 10 1) simpleGrading (1 1 1)
   hex (669 670 671 672 673 674 675 676) (10 10 1) simpleGrading (1 1 1)
   hex (677 678 679 680 681 682 683 684) (10 10 1) simpleGrading (1 1 1)
   hex (685 686 687 688 689 690 691 692) (10 10 1) simpleGrading (1 1 1)
   hex (693 694 695 696 697 698 699 700) (10 10 1) simpleGrading (1 1 1)
);

edges
(
  arc 153 154 90 (0 0 1)
  arc 157 158 90 (0 0 1)
  arc 154 155 45 (0 0 1)
  arc 158 159 45 (0 0 1)
  arc 200 203 90 (0 0 -1)
  arc 204 207 90 (0 0 -1)
  arc 252 253 90 (0 0 -1)
  arc 254 255 90 (0 0 -1)
  arc 277 284 45 (0 0 1)
  arc 281 287 45 (0 0 1)
  arc 298 299 90 (0 0 -1)
  arc 301 302 90 (0 0 -1)
  arc 429 432 45 (0 0 -1)
  arc 433 436 45 (0 0 -1)
  arc 430 431 45 (0 0 -1)
  arc 434 435 45 (0 0 -1)
  arc 161 162 45 (0 0 1)
  arc 165 166 45 (0 0 1)
);

boundary
(

);


// ************************************************************************* //
